LTspice 24.0.12 for Windows
Circuit: * C:\Users\skand\OneDrive\Desktop\Aec report\Draft1.asc
Start Time: Sun Jan 12 18:32:49 2025
r1: both pins shorted together -- ignoring.
solver = Normal
Maximum thread count: 12
tnom = 27
temp = 27
method = modified trap
Direct Newton iteration for .op point succeeded.
Total elapsed time: 0.061 seconds.

