LTspice 24.0.12 for Windows
Circuit: * C:\Users\skand\OneDrive\Desktop\Aec report\Draft2.asc
Start Time: Sun Jan 12 18:41:40 2025
solver = Normal
Maximum thread count: 12
tnom = 27
temp = 27
method = modified trap
Direct Newton iteration for .op point succeeded.
Total elapsed time: 0.066 seconds.

